<?xml version="1.0" encoding="UTF-8"?>

<!-- generated on 2025-03-17 19:01:11 by Eclipse SUMO jtrrouter Version 1.18.0
<configuration xmlns:xsi="http://www.w3.org/2001/XMLSchema-instance" xsi:noNamespaceSchemaLocation="http://sumo.dlr.de/xsd/jtrrouterConfiguration.xsd">

    <input>
        <net-file value="environment_llama.net.xml"/>
        <route-files value="demo.flow.xml"/>
        <turn-ratio-files value="demo.turn.xml"/>
    </input>

    <output>
        <output-file value="demo4.rou.xml"/>
    </output>

    <time>
        <begin value="0"/>
        <end value="3600"/>
    </time>

</configuration>
-->

<routes xmlns:xsi="http://www.w3.org/2001/XMLSchema-instance" xsi:noNamespaceSchemaLocation="http://sumo.dlr.de/xsd/routes_file.xsd">
    <vehicle id="1.0" depart="0.00" departLane="best" color="red">
        <route edges="W2TL TL2S"/>
    </vehicle>
    <vehicle id="2.0" depart="0.00" departLane="best" color="green">
        <route edges="S2TL TL2N"/>
    </vehicle>
    <vehicle id="3.0" depart="0.00" departLane="best" color="blue">
        <route edges="E2TL TL2N"/>
    </vehicle>
    <vehicle id="4.0" depart="0.00" departLane="best" color="yellow">
        <route edges="N2TL TL2S"/>
    </vehicle>
    <vehicle id="1.1" depart="2.00" departLane="best" color="red">
        <route edges="W2TL TL2E"/>
    </vehicle>
    <vehicle id="4.1" depart="2.12" departLane="best" color="yellow">
        <route edges="N2TL TL2E"/>
    </vehicle>
    <vehicle id="3.1" depart="2.40" departLane="best" color="blue">
        <route edges="E2TL TL2W"/>
    </vehicle>
    <vehicle id="2.1" depart="2.51" departLane="best" color="green">
        <route edges="S2TL TL2N"/>
    </vehicle>
    <vehicle id="1.2" depart="4.00" departLane="best" color="red">
        <route edges="W2TL TL2E"/>
    </vehicle>
    <vehicle id="4.2" depart="4.23" departLane="best" color="yellow">
        <route edges="N2TL TL2S"/>
    </vehicle>
    <vehicle id="3.2" depart="4.80" departLane="best" color="blue">
        <route edges="E2TL TL2N"/>
    </vehicle>
    <vehicle id="2.2" depart="5.02" departLane="best" color="green">
        <route edges="S2TL TL2N"/>
    </vehicle>
    <vehicle id="1.3" depart="6.00" departLane="best" color="red">
        <route edges="W2TL TL2E"/>
    </vehicle>
    <vehicle id="4.3" depart="6.35" departLane="best" color="yellow">
        <route edges="N2TL TL2S"/>
    </vehicle>
    <vehicle id="3.3" depart="7.20" departLane="best" color="blue">
        <route edges="E2TL TL2W"/>
    </vehicle>
    <vehicle id="2.3" depart="7.52" departLane="best" color="green">
        <route edges="S2TL TL2N"/>
    </vehicle>
    <vehicle id="1.4" depart="8.00" departLane="best" color="red">
        <route edges="W2TL TL2E"/>
    </vehicle>
    <vehicle id="4.4" depart="8.46" departLane="best" color="yellow">
        <route edges="N2TL TL2W"/>
    </vehicle>
    <vehicle id="3.4" depart="9.60" departLane="best" color="blue">
        <route edges="E2TL TL2S"/>
    </vehicle>
    <vehicle id="1.5" depart="10.00" departLane="best" color="red">
        <route edges="W2TL TL2N"/>
    </vehicle>
    <vehicle id="2.4" depart="10.03" departLane="best" color="green">
        <route edges="S2TL TL2E"/>
    </vehicle>
    <vehicle id="4.5" depart="10.58" departLane="best" color="yellow">
        <route edges="N2TL TL2S"/>
    </vehicle>
    <vehicle id="1.6" depart="12.00" departLane="best" color="red">
        <route edges="W2TL TL2E"/>
    </vehicle>
    <vehicle id="3.5" depart="12.00" departLane="best" color="blue">
        <route edges="E2TL TL2W"/>
    </vehicle>
    <vehicle id="2.5" depart="12.54" departLane="best" color="green">
        <route edges="S2TL TL2W"/>
    </vehicle>
    <vehicle id="4.6" depart="12.70" departLane="best" color="yellow">
        <route edges="N2TL TL2S"/>
    </vehicle>
    <vehicle id="1.7" depart="14.00" departLane="best" color="red">
        <route edges="W2TL TL2S"/>
    </vehicle>
    <vehicle id="3.6" depart="14.40" departLane="best" color="blue">
        <route edges="E2TL TL2S"/>
    </vehicle>
    <vehicle id="4.7" depart="14.81" departLane="best" color="yellow">
        <route edges="N2TL TL2S"/>
    </vehicle>
    <vehicle id="2.6" depart="15.05" departLane="best" color="green">
        <route edges="S2TL TL2N"/>
    </vehicle>
    <vehicle id="1.8" depart="16.00" departLane="best" color="red">
        <route edges="W2TL TL2E"/>
    </vehicle>
    <vehicle id="3.7" depart="16.80" departLane="best" color="blue">
        <route edges="E2TL TL2S"/>
    </vehicle>
    <vehicle id="4.8" depart="16.93" departLane="best" color="yellow">
        <route edges="N2TL TL2S"/>
    </vehicle>
    <vehicle id="2.7" depart="17.56" departLane="best" color="green">
        <route edges="S2TL TL2N"/>
    </vehicle>
    <vehicle id="1.9" depart="18.00" departLane="best" color="red">
        <route edges="W2TL TL2S"/>
    </vehicle>
    <vehicle id="4.9" depart="19.04" departLane="best" color="yellow">
        <route edges="N2TL TL2E"/>
    </vehicle>
    <vehicle id="3.8" depart="19.20" departLane="best" color="blue">
        <route edges="E2TL TL2W"/>
    </vehicle>
    <vehicle id="1.10" depart="20.00" departLane="best" color="red">
        <route edges="W2TL TL2E"/>
    </vehicle>
    <vehicle id="2.8" depart="20.06" departLane="best" color="green">
        <route edges="S2TL TL2N"/>
    </vehicle>
    <vehicle id="4.10" depart="21.16" departLane="best" color="yellow">
        <route edges="N2TL TL2E"/>
    </vehicle>
    <vehicle id="3.9" depart="21.60" departLane="best" color="blue">
        <route edges="E2TL TL2W"/>
    </vehicle>
    <vehicle id="1.11" depart="22.00" departLane="best" color="red">
        <route edges="W2TL TL2S"/>
    </vehicle>
    <vehicle id="2.9" depart="22.57" departLane="best" color="green">
        <route edges="S2TL TL2N"/>
    </vehicle>
    <vehicle id="4.11" depart="23.28" departLane="best" color="yellow">
        <route edges="N2TL TL2S"/>
    </vehicle>
    <vehicle id="1.12" depart="24.00" departLane="best" color="red">
        <route edges="W2TL TL2E"/>
    </vehicle>
    <vehicle id="3.10" depart="24.00" departLane="best" color="blue">
        <route edges="E2TL TL2W"/>
    </vehicle>
    <vehicle id="2.10" depart="25.08" departLane="best" color="green">
        <route edges="S2TL TL2N"/>
    </vehicle>
    <vehicle id="4.12" depart="25.39" departLane="best" color="yellow">
        <route edges="N2TL TL2S"/>
    </vehicle>
    <vehicle id="1.13" depart="26.00" departLane="best" color="red">
        <route edges="W2TL TL2E"/>
    </vehicle>
    <vehicle id="3.11" depart="26.40" departLane="best" color="blue">
        <route edges="E2TL TL2W"/>
    </vehicle>
    <vehicle id="4.13" depart="27.51" departLane="best" color="yellow">
        <route edges="N2TL TL2S"/>
    </vehicle>
    <vehicle id="2.11" depart="27.59" departLane="best" color="green">
        <route edges="S2TL TL2N"/>
    </vehicle>
    <vehicle id="1.14" depart="28.00" departLane="best" color="red">
        <route edges="W2TL TL2N"/>
    </vehicle>
    <vehicle id="3.12" depart="28.80" departLane="best" color="blue">
        <route edges="E2TL TL2W"/>
    </vehicle>
    <vehicle id="4.14" depart="29.62" departLane="best" color="yellow">
        <route edges="N2TL TL2W"/>
    </vehicle>
    <vehicle id="1.15" depart="30.00" departLane="best" color="red">
        <route edges="W2TL TL2E"/>
    </vehicle>
    <vehicle id="2.12" depart="30.10" departLane="best" color="green">
        <route edges="S2TL TL2N"/>
    </vehicle>
    <vehicle id="3.13" depart="31.20" departLane="best" color="blue">
        <route edges="E2TL TL2W"/>
    </vehicle>
    <vehicle id="4.15" depart="31.74" departLane="best" color="yellow">
        <route edges="N2TL TL2E"/>
    </vehicle>
    <vehicle id="1.16" depart="32.00" departLane="best" color="red">
        <route edges="W2TL TL2S"/>
    </vehicle>
    <vehicle id="2.13" depart="32.60" departLane="best" color="green">
        <route edges="S2TL TL2N"/>
    </vehicle>
    <vehicle id="3.14" depart="33.60" departLane="best" color="blue">
        <route edges="E2TL TL2W"/>
    </vehicle>
    <vehicle id="4.16" depart="33.86" departLane="best" color="yellow">
        <route edges="N2TL TL2E"/>
    </vehicle>
    <vehicle id="1.17" depart="34.00" departLane="best" color="red">
        <route edges="W2TL TL2E"/>
    </vehicle>
    <vehicle id="2.14" depart="35.11" departLane="best" color="green">
        <route edges="S2TL TL2N"/>
    </vehicle>
    <vehicle id="4.17" depart="35.97" departLane="best" color="yellow">
        <route edges="N2TL TL2S"/>
    </vehicle>
    <vehicle id="1.18" depart="36.00" departLane="best" color="red">
        <route edges="W2TL TL2S"/>
    </vehicle>
    <vehicle id="3.15" depart="36.00" departLane="best" color="blue">
        <route edges="E2TL TL2N"/>
    </vehicle>
    <vehicle id="2.15" depart="37.62" departLane="best" color="green">
        <route edges="S2TL TL2N"/>
    </vehicle>
    <vehicle id="1.19" depart="38.00" departLane="best" color="red">
        <route edges="W2TL TL2S"/>
    </vehicle>
    <vehicle id="4.18" depart="38.09" departLane="best" color="yellow">
        <route edges="N2TL TL2S"/>
    </vehicle>
    <vehicle id="3.16" depart="38.40" departLane="best" color="blue">
        <route edges="E2TL TL2S"/>
    </vehicle>
    <vehicle id="1.20" depart="40.00" departLane="best" color="red">
        <route edges="W2TL TL2E"/>
    </vehicle>
    <vehicle id="2.16" depart="40.13" departLane="best" color="green">
        <route edges="S2TL TL2N"/>
    </vehicle>
    <vehicle id="4.19" depart="40.20" departLane="best" color="yellow">
        <route edges="N2TL TL2S"/>
    </vehicle>
    <vehicle id="3.17" depart="40.80" departLane="best" color="blue">
        <route edges="E2TL TL2S"/>
    </vehicle>
    <vehicle id="1.21" depart="42.00" departLane="best" color="red">
        <route edges="W2TL TL2E"/>
    </vehicle>
    <vehicle id="4.20" depart="42.32" departLane="best" color="yellow">
        <route edges="N2TL TL2E"/>
    </vehicle>
    <vehicle id="2.17" depart="42.64" departLane="best" color="green">
        <route edges="S2TL TL2N"/>
    </vehicle>
    <vehicle id="3.18" depart="43.20" departLane="best" color="blue">
        <route edges="E2TL TL2S"/>
    </vehicle>
    <vehicle id="1.22" depart="44.00" departLane="best" color="red">
        <route edges="W2TL TL2E"/>
    </vehicle>
    <vehicle id="4.21" depart="44.44" departLane="best" color="yellow">
        <route edges="N2TL TL2S"/>
    </vehicle>
    <vehicle id="2.18" depart="45.14" departLane="best" color="green">
        <route edges="S2TL TL2N"/>
    </vehicle>
    <vehicle id="3.19" depart="45.60" departLane="best" color="blue">
        <route edges="E2TL TL2W"/>
    </vehicle>
    <vehicle id="1.23" depart="46.00" departLane="best" color="red">
        <route edges="W2TL TL2N"/>
    </vehicle>
    <vehicle id="4.22" depart="46.55" departLane="best" color="yellow">
        <route edges="N2TL TL2S"/>
    </vehicle>
    <vehicle id="2.19" depart="47.65" departLane="best" color="green">
        <route edges="S2TL TL2N"/>
    </vehicle>
    <vehicle id="1.24" depart="48.00" departLane="best" color="red">
        <route edges="W2TL TL2N"/>
    </vehicle>
    <vehicle id="3.20" depart="48.00" departLane="best" color="blue">
        <route edges="E2TL TL2W"/>
    </vehicle>
    <vehicle id="4.23" depart="48.67" departLane="best" color="yellow">
        <route edges="N2TL TL2S"/>
    </vehicle>
    <vehicle id="1.25" depart="50.00" departLane="best" color="red">
        <route edges="W2TL TL2E"/>
    </vehicle>
    <vehicle id="2.20" depart="50.16" departLane="best" color="green">
        <route edges="S2TL TL2W"/>
    </vehicle>
    <vehicle id="3.21" depart="50.40" departLane="best" color="blue">
        <route edges="E2TL TL2N"/>
    </vehicle>
    <vehicle id="4.24" depart="50.78" departLane="best" color="yellow">
        <route edges="N2TL TL2S"/>
    </vehicle>
    <vehicle id="1.26" depart="52.00" departLane="best" color="red">
        <route edges="W2TL TL2E"/>
    </vehicle>
    <vehicle id="2.21" depart="52.67" departLane="best" color="green">
        <route edges="S2TL TL2W"/>
    </vehicle>
    <vehicle id="3.22" depart="52.80" departLane="best" color="blue">
        <route edges="E2TL TL2W"/>
    </vehicle>
    <vehicle id="4.25" depart="52.90" departLane="best" color="yellow">
        <route edges="N2TL TL2W"/>
    </vehicle>
    <vehicle id="1.27" depart="54.00" departLane="best" color="red">
        <route edges="W2TL TL2E"/>
    </vehicle>
    <vehicle id="4.26" depart="55.02" departLane="best" color="yellow">
        <route edges="N2TL TL2S"/>
    </vehicle>
    <vehicle id="2.22" depart="55.18" departLane="best" color="green">
        <route edges="S2TL TL2N"/>
    </vehicle>
    <vehicle id="3.23" depart="55.20" departLane="best" color="blue">
        <route edges="E2TL TL2W"/>
    </vehicle>
    <vehicle id="1.28" depart="56.00" departLane="best" color="red">
        <route edges="W2TL TL2N"/>
    </vehicle>
    <vehicle id="4.27" depart="57.13" departLane="best" color="yellow">
        <route edges="N2TL TL2S"/>
    </vehicle>
    <vehicle id="3.24" depart="57.60" departLane="best" color="blue">
        <route edges="E2TL TL2W"/>
    </vehicle>
    <vehicle id="2.23" depart="57.68" departLane="best" color="green">
        <route edges="S2TL TL2N"/>
    </vehicle>
    <vehicle id="1.29" depart="58.00" departLane="best" color="red">
        <route edges="W2TL TL2E"/>
    </vehicle>
    <vehicle id="4.28" depart="59.25" departLane="best" color="yellow">
        <route edges="N2TL TL2S"/>
    </vehicle>
    <vehicle id="1.30" depart="60.00" departLane="best" color="red">
        <route edges="W2TL TL2N"/>
    </vehicle>
    <vehicle id="3.25" depart="60.00" departLane="best" color="blue">
        <route edges="E2TL TL2N"/>
    </vehicle>
    <vehicle id="2.24" depart="60.19" departLane="best" color="green">
        <route edges="S2TL TL2N"/>
    </vehicle>
    <vehicle id="4.29" depart="61.36" departLane="best" color="yellow">
        <route edges="N2TL TL2S"/>
    </vehicle>
    <vehicle id="1.31" depart="62.00" departLane="best" color="red">
        <route edges="W2TL TL2N"/>
    </vehicle>
    <vehicle id="3.26" depart="62.40" departLane="best" color="blue">
        <route edges="E2TL TL2S"/>
    </vehicle>
    <vehicle id="2.25" depart="62.70" departLane="best" color="green">
        <route edges="S2TL TL2N"/>
    </vehicle>
    <vehicle id="4.30" depart="63.48" departLane="best" color="yellow">
        <route edges="N2TL TL2E"/>
    </vehicle>
    <vehicle id="1.32" depart="64.00" departLane="best" color="red">
        <route edges="W2TL TL2N"/>
    </vehicle>
    <vehicle id="3.27" depart="64.80" departLane="best" color="blue">
        <route edges="E2TL TL2S"/>
    </vehicle>
    <vehicle id="2.26" depart="65.21" departLane="best" color="green">
        <route edges="S2TL TL2W"/>
    </vehicle>
    <vehicle id="4.31" depart="65.60" departLane="best" color="yellow">
        <route edges="N2TL TL2S"/>
    </vehicle>
    <vehicle id="1.33" depart="66.00" departLane="best" color="red">
        <route edges="W2TL TL2E"/>
    </vehicle>
    <vehicle id="3.28" depart="67.20" departLane="best" color="blue">
        <route edges="E2TL TL2N"/>
    </vehicle>
    <vehicle id="4.32" depart="67.71" departLane="best" color="yellow">
        <route edges="N2TL TL2S"/>
    </vehicle>
    <vehicle id="2.27" depart="67.72" departLane="best" color="green">
        <route edges="S2TL TL2N"/>
    </vehicle>
    <vehicle id="1.34" depart="68.00" departLane="best" color="red">
        <route edges="W2TL TL2S"/>
    </vehicle>
    <vehicle id="3.29" depart="69.60" departLane="best" color="blue">
        <route edges="E2TL TL2W"/>
    </vehicle>
    <vehicle id="4.33" depart="69.83" departLane="best" color="yellow">
        <route edges="N2TL TL2E"/>
    </vehicle>
    <vehicle id="1.35" depart="70.00" departLane="best" color="red">
        <route edges="W2TL TL2S"/>
    </vehicle>
    <vehicle id="2.28" depart="70.22" departLane="best" color="green">
        <route edges="S2TL TL2N"/>
    </vehicle>
    <vehicle id="4.34" depart="71.94" departLane="best" color="yellow">
        <route edges="N2TL TL2S"/>
    </vehicle>
    <vehicle id="1.36" depart="72.00" departLane="best" color="red">
        <route edges="W2TL TL2E"/>
    </vehicle>
    <vehicle id="3.30" depart="72.00" departLane="best" color="blue">
        <route edges="E2TL TL2W"/>
    </vehicle>
    <vehicle id="2.29" depart="72.73" departLane="best" color="green">
        <route edges="S2TL TL2N"/>
    </vehicle>
    <vehicle id="1.37" depart="74.00" departLane="best" color="red">
        <route edges="W2TL TL2E"/>
    </vehicle>
    <vehicle id="4.35" depart="74.06" departLane="best" color="yellow">
        <route edges="N2TL TL2S"/>
    </vehicle>
    <vehicle id="3.31" depart="74.40" departLane="best" color="blue">
        <route edges="E2TL TL2W"/>
    </vehicle>
    <vehicle id="2.30" depart="75.24" departLane="best" color="green">
        <route edges="S2TL TL2N"/>
    </vehicle>
    <vehicle id="1.38" depart="76.00" departLane="best" color="red">
        <route edges="W2TL TL2E"/>
    </vehicle>
    <vehicle id="4.36" depart="76.18" departLane="best" color="yellow">
        <route edges="N2TL TL2S"/>
    </vehicle>
    <vehicle id="3.32" depart="76.80" departLane="best" color="blue">
        <route edges="E2TL TL2W"/>
    </vehicle>
    <vehicle id="2.31" depart="77.75" departLane="best" color="green">
        <route edges="S2TL TL2N"/>
    </vehicle>
    <vehicle id="1.39" depart="78.00" departLane="best" color="red">
        <route edges="W2TL TL2S"/>
    </vehicle>
    <vehicle id="4.37" depart="78.29" departLane="best" color="yellow">
        <route edges="N2TL TL2S"/>
    </vehicle>
    <vehicle id="3.33" depart="79.20" departLane="best" color="blue">
        <route edges="E2TL TL2N"/>
    </vehicle>
    <vehicle id="1.40" depart="80.00" departLane="best" color="red">
        <route edges="W2TL TL2S"/>
    </vehicle>
    <vehicle id="2.32" depart="80.26" departLane="best" color="green">
        <route edges="S2TL TL2W"/>
    </vehicle>
    <vehicle id="4.38" depart="80.41" departLane="best" color="yellow">
        <route edges="N2TL TL2S"/>
    </vehicle>
    <vehicle id="3.34" depart="81.60" departLane="best" color="blue">
        <route edges="E2TL TL2W"/>
    </vehicle>
    <vehicle id="1.41" depart="82.00" departLane="best" color="red">
        <route edges="W2TL TL2E"/>
    </vehicle>
    <vehicle id="4.39" depart="82.52" departLane="best" color="yellow">
        <route edges="N2TL TL2S"/>
    </vehicle>
    <vehicle id="2.33" depart="82.76" departLane="best" color="green">
        <route edges="S2TL TL2N"/>
    </vehicle>
    <vehicle id="1.42" depart="84.00" departLane="best" color="red">
        <route edges="W2TL TL2E"/>
    </vehicle>
    <vehicle id="3.35" depart="84.00" departLane="best" color="blue">
        <route edges="E2TL TL2S"/>
    </vehicle>
    <vehicle id="4.40" depart="84.64" departLane="best" color="yellow">
        <route edges="N2TL TL2E"/>
    </vehicle>
    <vehicle id="2.34" depart="85.27" departLane="best" color="green">
        <route edges="S2TL TL2N"/>
    </vehicle>
    <vehicle id="1.43" depart="86.00" departLane="best" color="red">
        <route edges="W2TL TL2S"/>
    </vehicle>
    <vehicle id="3.36" depart="86.40" departLane="best" color="blue">
        <route edges="E2TL TL2N"/>
    </vehicle>
    <vehicle id="4.41" depart="86.76" departLane="best" color="yellow">
        <route edges="N2TL TL2S"/>
    </vehicle>
    <vehicle id="2.35" depart="87.78" departLane="best" color="green">
        <route edges="S2TL TL2W"/>
    </vehicle>
    <vehicle id="1.44" depart="88.00" departLane="best" color="red">
        <route edges="W2TL TL2E"/>
    </vehicle>
    <vehicle id="3.37" depart="88.80" departLane="best" color="blue">
        <route edges="E2TL TL2N"/>
    </vehicle>
    <vehicle id="4.42" depart="88.87" departLane="best" color="yellow">
        <route edges="N2TL TL2S"/>
    </vehicle>
    <vehicle id="1.45" depart="90.00" departLane="best" color="red">
        <route edges="W2TL TL2N"/>
    </vehicle>
    <vehicle id="2.36" depart="90.29" departLane="best" color="green">
        <route edges="S2TL TL2N"/>
    </vehicle>
    <vehicle id="4.43" depart="90.99" departLane="best" color="yellow">
        <route edges="N2TL TL2W"/>
    </vehicle>
    <vehicle id="3.38" depart="91.20" departLane="best" color="blue">
        <route edges="E2TL TL2W"/>
    </vehicle>
    <vehicle id="1.46" depart="92.00" departLane="best" color="red">
        <route edges="W2TL TL2S"/>
    </vehicle>
    <vehicle id="2.37" depart="92.80" departLane="best" color="green">
        <route edges="S2TL TL2N"/>
    </vehicle>
    <vehicle id="4.44" depart="93.10" departLane="best" color="yellow">
        <route edges="N2TL TL2S"/>
    </vehicle>
    <vehicle id="3.39" depart="93.60" departLane="best" color="blue">
        <route edges="E2TL TL2W"/>
    </vehicle>
    <vehicle id="1.47" depart="94.00" departLane="best" color="red">
        <route edges="W2TL TL2E"/>
    </vehicle>
    <vehicle id="4.45" depart="95.22" departLane="best" color="yellow">
        <route edges="N2TL TL2S"/>
    </vehicle>
    <vehicle id="2.38" depart="95.30" departLane="best" color="green">
        <route edges="S2TL TL2N"/>
    </vehicle>
    <vehicle id="1.48" depart="96.00" departLane="best" color="red">
        <route edges="W2TL TL2E"/>
    </vehicle>
    <vehicle id="3.40" depart="96.00" departLane="best" color="blue">
        <route edges="E2TL TL2S"/>
    </vehicle>
    <vehicle id="4.46" depart="97.34" departLane="best" color="yellow">
        <route edges="N2TL TL2S"/>
    </vehicle>
    <vehicle id="2.39" depart="97.81" departLane="best" color="green">
        <route edges="S2TL TL2N"/>
    </vehicle>
    <vehicle id="1.49" depart="98.00" departLane="best" color="red">
        <route edges="W2TL TL2E"/>
    </vehicle>
    <vehicle id="3.41" depart="98.40" departLane="best" color="blue">
        <route edges="E2TL TL2W"/>
    </vehicle>
    <vehicle id="4.47" depart="99.45" departLane="best" color="yellow">
        <route edges="N2TL TL2E"/>
    </vehicle>
    <vehicle id="1.50" depart="100.00" departLane="best" color="red">
        <route edges="W2TL TL2E"/>
    </vehicle>
    <vehicle id="2.40" depart="100.32" departLane="best" color="green">
        <route edges="S2TL TL2N"/>
    </vehicle>
    <vehicle id="3.42" depart="100.80" departLane="best" color="blue">
        <route edges="E2TL TL2W"/>
    </vehicle>
    <vehicle id="4.48" depart="101.57" departLane="best" color="yellow">
        <route edges="N2TL TL2E"/>
    </vehicle>
    <vehicle id="1.51" depart="102.00" departLane="best" color="red">
        <route edges="W2TL TL2E"/>
    </vehicle>
    <vehicle id="2.41" depart="102.83" departLane="best" color="green">
        <route edges="S2TL TL2N"/>
    </vehicle>
    <vehicle id="3.43" depart="103.20" departLane="best" color="blue">
        <route edges="E2TL TL2S"/>
    </vehicle>
    <vehicle id="4.49" depart="103.68" departLane="best" color="yellow">
        <route edges="N2TL TL2S"/>
    </vehicle>
    <vehicle id="1.52" depart="104.00" departLane="best" color="red">
        <route edges="W2TL TL2S"/>
    </vehicle>
    <vehicle id="2.42" depart="105.34" departLane="best" color="green">
        <route edges="S2TL TL2N"/>
    </vehicle>
    <vehicle id="3.44" depart="105.60" departLane="best" color="blue">
        <route edges="E2TL TL2S"/>
    </vehicle>
    <vehicle id="4.50" depart="105.80" departLane="best" color="yellow">
        <route edges="N2TL TL2S"/>
    </vehicle>
    <vehicle id="1.53" depart="106.00" departLane="best" color="red">
        <route edges="W2TL TL2E"/>
    </vehicle>
    <vehicle id="2.43" depart="107.84" departLane="best" color="green">
        <route edges="S2TL TL2N"/>
    </vehicle>
    <vehicle id="4.51" depart="107.92" departLane="best" color="yellow">
        <route edges="N2TL TL2S"/>
    </vehicle>
    <vehicle id="1.54" depart="108.00" departLane="best" color="red">
        <route edges="W2TL TL2S"/>
    </vehicle>
    <vehicle id="3.45" depart="108.00" departLane="best" color="blue">
        <route edges="E2TL TL2S"/>
    </vehicle>
    <vehicle id="1.55" depart="110.00" departLane="best" color="red">
        <route edges="W2TL TL2S"/>
    </vehicle>
    <vehicle id="4.52" depart="110.03" departLane="best" color="yellow">
        <route edges="N2TL TL2S"/>
    </vehicle>
    <vehicle id="2.44" depart="110.35" departLane="best" color="green">
        <route edges="S2TL TL2N"/>
    </vehicle>
    <vehicle id="3.46" depart="110.40" departLane="best" color="blue">
        <route edges="E2TL TL2W"/>
    </vehicle>
    <vehicle id="1.56" depart="112.00" departLane="best" color="red">
        <route edges="W2TL TL2E"/>
    </vehicle>
    <vehicle id="4.53" depart="112.15" departLane="best" color="yellow">
        <route edges="N2TL TL2S"/>
    </vehicle>
    <vehicle id="3.47" depart="112.80" departLane="best" color="blue">
        <route edges="E2TL TL2N"/>
    </vehicle>
    <vehicle id="2.45" depart="112.86" departLane="best" color="green">
        <route edges="S2TL TL2N"/>
    </vehicle>
    <vehicle id="1.57" depart="114.00" departLane="best" color="red">
        <route edges="W2TL TL2N"/>
    </vehicle>
    <vehicle id="4.54" depart="114.26" departLane="best" color="yellow">
        <route edges="N2TL TL2S"/>
    </vehicle>
    <vehicle id="3.48" depart="115.20" departLane="best" color="blue">
        <route edges="E2TL TL2N"/>
    </vehicle>
    <vehicle id="2.46" depart="115.37" departLane="best" color="green">
        <route edges="S2TL TL2N"/>
    </vehicle>
    <vehicle id="1.58" depart="116.00" departLane="best" color="red">
        <route edges="W2TL TL2E"/>
    </vehicle>
    <vehicle id="4.55" depart="116.38" departLane="best" color="yellow">
        <route edges="N2TL TL2S"/>
    </vehicle>
    <vehicle id="3.49" depart="117.60" departLane="best" color="blue">
        <route edges="E2TL TL2N"/>
    </vehicle>
    <vehicle id="2.47" depart="117.88" departLane="best" color="green">
        <route edges="S2TL TL2N"/>
    </vehicle>
    <vehicle id="1.59" depart="118.00" departLane="best" color="red">
        <route edges="W2TL TL2N"/>
    </vehicle>
    <vehicle id="4.56" depart="118.50" departLane="best" color="yellow">
        <route edges="N2TL TL2S"/>
    </vehicle>
    <vehicle id="1.60" depart="120.00" departLane="best" color="red">
        <route edges="W2TL TL2N"/>
    </vehicle>
    <vehicle id="3.50" depart="120.00" departLane="best" color="blue">
        <route edges="E2TL TL2S"/>
    </vehicle>
    <vehicle id="2.48" depart="120.38" departLane="best" color="green">
        <route edges="S2TL TL2W"/>
    </vehicle>
    <vehicle id="4.57" depart="120.61" departLane="best" color="yellow">
        <route edges="N2TL TL2S"/>
    </vehicle>
    <vehicle id="1.61" depart="122.00" departLane="best" color="red">
        <route edges="W2TL TL2E"/>
    </vehicle>
    <vehicle id="3.51" depart="122.40" departLane="best" color="blue">
        <route edges="E2TL TL2W"/>
    </vehicle>
    <vehicle id="4.58" depart="122.73" departLane="best" color="yellow">
        <route edges="N2TL TL2E"/>
    </vehicle>
    <vehicle id="2.49" depart="122.89" departLane="best" color="green">
        <route edges="S2TL TL2N"/>
    </vehicle>
    <vehicle id="1.62" depart="124.00" departLane="best" color="red">
        <route edges="W2TL TL2E"/>
    </vehicle>
    <vehicle id="3.52" depart="124.80" departLane="best" color="blue">
        <route edges="E2TL TL2W"/>
    </vehicle>
    <vehicle id="4.59" depart="124.84" departLane="best" color="yellow">
        <route edges="N2TL TL2W"/>
    </vehicle>
    <vehicle id="2.50" depart="125.40" departLane="best" color="green">
        <route edges="S2TL TL2W"/>
    </vehicle>
    <vehicle id="1.63" depart="126.00" departLane="best" color="red">
        <route edges="W2TL TL2E"/>
    </vehicle>
    <vehicle id="4.60" depart="126.96" departLane="best" color="yellow">
        <route edges="N2TL TL2W"/>
    </vehicle>
    <vehicle id="3.53" depart="127.20" departLane="best" color="blue">
        <route edges="E2TL TL2S"/>
    </vehicle>
    <vehicle id="2.51" depart="127.91" departLane="best" color="green">
        <route edges="S2TL TL2N"/>
    </vehicle>
    <vehicle id="1.64" depart="128.00" departLane="best" color="red">
        <route edges="W2TL TL2E"/>
    </vehicle>
    <vehicle id="4.61" depart="129.08" departLane="best" color="yellow">
        <route edges="N2TL TL2S"/>
    </vehicle>
    <vehicle id="3.54" depart="129.60" departLane="best" color="blue">
        <route edges="E2TL TL2W"/>
    </vehicle>
    <vehicle id="1.65" depart="130.00" departLane="best" color="red">
        <route edges="W2TL TL2E"/>
    </vehicle>
    <vehicle id="2.52" depart="130.42" departLane="best" color="green">
        <route edges="S2TL TL2N"/>
    </vehicle>
    <vehicle id="4.62" depart="131.19" departLane="best" color="yellow">