<?xml version="1.0" encoding="UTF-8"?>

<configuration xmlns:xsi="http://www.w3.org/2001/XMLSchema-instance" xsi:noNamespaceSchemaLocation="http://sumo.dlr.de/xsd/sumoConfiguration.xsd">

    <input>
        <net-file value="environment.net.xml"/>
        <route-files value="demo4.rou.xml"/>
        <additional-files value="tls.add.xml"/>
    </input>

    <time>
      <begin value="0"/>
    </time>

    <processing>
        <time-to-teleport value="-1"/>
    </processing>
    <output>
         <write-license value="true"/>
         <statistic-output value="statistic.output.xml"/>
         <tripinfo-output value="tripinfos.xml"/>
         
    </output>
    <report>
         <duration-log.statistics value="true"/>
    </report>

</configuration>
